Version 4.1
SHEET 1 12944 3448
WIRE 8624 -5648 8528 -5648
WIRE 8848 -5648 8704 -5648
WIRE 9952 -5632 9952 -5680
WIRE 9952 -5600 9952 -5632
WIRE 10096 -5600 9984 -5600
WIRE 10160 -5600 10096 -5600
WIRE 10160 -5584 10160 -5600
WIRE 6944 -5536 6928 -5536
WIRE 7056 -5536 6944 -5536
WIRE 7136 -5536 7056 -5536
WIRE 7152 -5536 7136 -5536
WIRE 8848 -5536 8848 -5648
WIRE 9616 -5536 9440 -5536
WIRE 9760 -5536 9696 -5536
WIRE 9856 -5536 9760 -5536
WIRE 7344 -5520 7248 -5520
WIRE 7440 -5520 7344 -5520
WIRE 7760 -5520 7440 -5520
WIRE 7888 -5520 7760 -5520
WIRE 8192 -5520 8048 -5520
WIRE 9760 -5520 9760 -5536
WIRE 7136 -5504 7136 -5536
WIRE 7152 -5504 7136 -5504
WIRE 9760 -5456 9744 -5456
WIRE 9856 -5456 9760 -5456
WIRE 10096 -5456 10032 -5456
WIRE 10160 -5456 10160 -5504
WIRE 10160 -5456 10096 -5456
WIRE 7344 -5440 7344 -5520
WIRE 7760 -5440 7760 -5520
WIRE 9856 -5408 9824 -5408
WIRE 10736 -5408 10048 -5408
WIRE 10928 -5408 10816 -5408
WIRE 11120 -5408 10928 -5408
WIRE 11392 -5408 11200 -5408
WIRE 9824 -5312 9824 -5408
WIRE 9952 -5312 9952 -5344
WIRE 6944 -5296 6944 -5472
WIRE 7056 -5296 7056 -5472
WIRE 7216 -5296 7216 -5456
WIRE 7344 -5296 7344 -5376
WIRE 7440 -5296 7440 -5456
WIRE 7760 -5296 7760 -5376
WIRE 7968 -5296 7968 -5456
WIRE 9600 -5264 9472 -5264
WIRE 9744 -5264 9744 -5456
WIRE 9744 -5264 9680 -5264
WIRE 9952 -5264 9952 -5312
WIRE 10928 -5232 10928 -5408
WIRE 11392 -5216 11392 -5408
WIRE 8848 -5200 8848 -5408
WIRE 8848 -5200 8560 -5200
WIRE 9136 -5200 8848 -5200
WIRE 7808 -4864 7808 -4912
WIRE 8560 -4848 8560 -5200
WIRE 9136 -4848 9136 -5200
WIRE 7712 -4784 7600 -4784
WIRE 10928 -4768 10928 -5168
WIRE 11392 -4768 11392 -5136
WIRE 8192 -4752 7936 -4752
WIRE 7632 -4720 7600 -4720
WIRE 7712 -4720 7632 -4720
WIRE 7808 -4576 7808 -4640
WIRE 7632 -4480 7632 -4720
WIRE 8448 -4480 7632 -4480
WIRE 8560 -4480 8560 -4768
WIRE 8560 -4480 8448 -4480
WIRE 8560 -4416 8560 -4480
WIRE 9136 -4416 9136 -4768
WIRE 9472 -4416 9472 -5264
WIRE 9472 -4416 9136 -4416
WIRE 8560 -4288 8560 -4336
WIRE 7648 -3952 7648 -4064
WIRE 8048 -3952 8048 -4064
WIRE 7648 -3840 7648 -3872
WIRE 8048 -3840 8048 -3872
FLAG 8048 -3840 0
FLAG 7648 -3840 0
FLAG 7648 -4064 +15V
FLAG 8048 -4064 -15V
FLAG 7600 -4784 VREF_1V25
FLAG 7808 -4912 +15V
FLAG 7808 -4576 -15V
FLAG 8560 -4288 0
FLAG 7600 -4720 NODO_SENSOR
FLAG 8192 -4752 RTD_Iexc
FLAG 7760 -5296 0
FLAG 6928 -5536 +15V
FLAG 7216 -5296 0
FLAG 7968 -5296 0
FLAG 7344 -5296 0
FLAG 8192 -5520 VREF_1V25
FLAG 8528 -5648 RTD_Iexc
FLAG 9952 -5680 +15V
FLAG 9952 -5632 7
FLAG 9440 -5536 RTD_A
FLAG 8848 -5648 RTD_A
FLAG 8848 -5200 RTD_B
FLAG 9952 -5264 -15V
FLAG 9952 -5312 6
FLAG 10096 -5600 RG+
FLAG 10096 -5456 RG-
FLAG 10928 -5408 VOUT_FILT
FLAG 10928 -4768 0
FLAG 11392 -5408 OUT_PT100_BBOX
FLAG 8448 -4480 NODO_SENSOR
FLAG 11392 -4768 0
FLAG 9824 -5312 0
FLAG 9136 -4416 RTD_SENSOR
FLAG 7056 -5296 0
FLAG 7440 -5296 0
FLAG 6944 -5296 0
SYMBOL voltage 7648 -3968 R0
WINDOW 123 0 0 Left 0
SYMATTR InstName +15V_BBOX
SYMATTR Value 15
SYMATTR SpiceLine Rser=0.05
SYMBOL voltage 8048 -3856 R180
WINDOW 123 0 0 Left 0
SYMATTR InstName -15V_BBOX
SYMATTR Value 15
SYMATTR SpiceLine Rser=0.05
SYMBOL res 8544 -4432 R0
SYMATTR InstName RSET
SYMATTR Value {RSET_VAL}
SYMATTR SpiceLine tol=0.01
SYMBOL cap 7744 -5440 R0
SYMATTR InstName C1
SYMATTR Value 100nF
SYMBOL PCB_PT100_SM50\\REF30E1_IDEAL 7968 -5520 R0
SYMATTR InstName U4
SYMBOL cap 7328 -5440 R0
SYMATTR InstName C2
SYMATTR Value 10µF
SYMBOL PCB_PT100_SM50\\symbols\\LDO_5V_GENERIC 7216 -5520 R0
SYMATTR InstName U5
SYMBOL res 8720 -5664 R90
WINDOW 0 0 56 VBottom 2
WINDOW 3 32 56 VTop 2
SYMATTR InstName RLEAD1
SYMATTR Value {RLEAD}
SYMBOL res 8544 -4864 R0
SYMATTR InstName RLEAD2
SYMATTR Value {RLEAD}
SYMBOL res 9120 -4864 R0
SYMATTR InstName RLEAD3
SYMATTR Value {RLEAD}
SYMBOL res 9712 -5552 R90
WINDOW 0 0 56 VBottom 2
WINDOW 3 32 56 VTop 2
SYMATTR InstName RIN+
SYMATTR Value 50
SYMBOL res 10144 -5600 R0
SYMATTR InstName RG
SYMATTR Value 1k
SYMBOL res 9696 -5280 R90
WINDOW 0 0 56 VBottom 2
WINDOW 3 32 56 VTop 2
SYMATTR InstName RIN-
SYMATTR Value 50
SYMBOL res 10832 -5424 R90
WINDOW 0 0 56 VBottom 2
WINDOW 3 32 56 VTop 2
SYMATTR InstName ROUT
SYMATTR Value 200
SYMBOL cap 10912 -5232 R0
SYMATTR InstName C4
SYMATTR Value 100nF
SYMBOL res 11216 -5424 R90
WINDOW 0 0 56 VBottom 2
WINDOW 3 32 56 VTop 2
SYMATTR InstName R_BBOX
SYMATTR Value 50
SYMBOL PCB_PT100_SM50\\PT100_CLEAN 8848 -5472 R90
SYMATTR InstName U3
SYMBOL cap 9744 -5520 R0
SYMATTR InstName C3
SYMATTR Value 100nF
SYMBOL OPAx188 7808 -4752 R0
SYMATTR InstName U2
SYMBOL res 11376 -5232 R0
SYMATTR InstName R1
SYMATTR Value 3k
SYMBOL INA826 9952 -5472 R0
SYMATTR InstName U1
SYMBOL cap 7040 -5536 R0
SYMATTR InstName C5
SYMATTR Value 100nF
SYMBOL cap 7424 -5520 R0
SYMATTR InstName C6
SYMATTR Value 100nF
SYMBOL cap 6928 -5536 R0
SYMATTR InstName C7
SYMATTR Value 10µF
TEXT 7696 -4168 Left 2 ;Alimentación por tensión(V)
TEXT 7376 -5736 Left 2 ;Fuente de tensión de presición
TEXT 7696 -5088 Left 2 ;Fuente de Corriente
TEXT 8736 -5760 Left 2 ;PT100 3 hilos
TEXT 9528 -5768 Left 2 ;Filtro de entrada y amplificador de instrumentación INA828
TEXT 10808 -5760 Left 2 ;Filtro de salida hacia la BBOX
TEXT 24344 -12480 Invisible 2 !.include ".\\proyecto_pcb_sensor_pt100.inc"\n.include ".\\INA826.lib"\n \n.step param TempNom list 0 20 50 100\n \n.param TEMP_MIN=0\n.param TEMP_MAX=100\n.param TEMP_ERR_C=5\n \n.param TempC={TempNom}\n \n.param TempLow={max(TEMP_MIN,TempNom-TEMP_ERR_C)}\n.param TempHigh={min(TEMP_MAX,TempNom+TEMP_ERR_C)}\n \n.param IRTD=0.5m\n.param VREF_VAL=1.25\n.param RSET_VAL={VREF_VAL/IRTD}\n \n.param RLEAD=1m\n \n.param RPT100_NOM={100*(1+3.9083e-3*TempNom-5.775e-7*TempNom*TempNom)}\n.param RPT100_LOW={100*(1+3.9083e-3*TempLow-5.775e-7*TempLow*TempLow)}\n.param RPT100_HIGH={100*(1+3.9083e-3*TempHigh-5.775e-7*TempHigh*TempHigh)}\n \n.param VPT100_NOM_mV={1000*IRTD*RPT100_NOM}\n.param VPT100_LOW_mV={1000*IRTD*RPT100_LOW}\n.param VPT100_HIGH_mV={1000*IRTD*RPT100_HIGH}\n \n.param T_ZERO=0\n.param RPT100_ZERO={100*(1+3.9083e-3*T_ZERO-5.775e-7*T_ZERO*T_ZERO)}\n.param V_OFFSET_PT100={IRTD*RPT100_ZERO}\n \n.param RG_INA=1k\n.param G_INA={1+49.4k/RG_INA}\n \n.tran 0 60m 0 10u startup uic\n \n.meas TRAN TEMPERATURA PARAM {TempNom}\n.meas TRAN TEMP_BAJA PARAM {TempLow}\n.meas TRAN TEMP_ALTA PARAM {TempHigh}\n \n.meas TRAN R_PT100_NOM PARAM {RPT100_NOM}\n.meas TRAN R_PT100_BAJA PARAM {RPT100_LOW}\n.meas TRAN R_PT100_ALTA PARAM {RPT100_HIGH}\n \n.meas TRAN V_PT100_NOM_mV PARAM {VPT100_NOM_mV}\n.meas TRAN V_PT100_BAJA_mV PARAM {VPT100_LOW_mV}\n.meas TRAN V_PT100_ALTA_mV PARAM {VPT100_HIGH_mV}\n \n.meas TRAN V_PT100_REAL_mV PARAM {1000*V(RTD_A,RTD_B)}\n.meas TRAN V_OUT_BBOX FIND V(OUT_PT100_BBOX) AT=50m\n \n.meas TRAN V_VOUT_FILT FIND V(VOUT_FILT) AT=50m\n.meas TRAN V_DROP_RBBOX FIND V(VOUT_FILT,OUT_PT100_BBOX) AT=50m\n \n.options reltol=1e-3\n.options abstol=1n\n.options vntol=1u\n.options gmin=1e-10\n.options gminsteps=0\n.options srcsteps=0\n \n.ic V(VREF_1V25)=1.25\n.ic V(NODO_SENSOR)=1.25\n.ic V(RTD_Iexc)=1.38\n.ic V(RTD_A)=1.38\n.ic V(RTD_B)=1.25\n.ic V(RTD_SENSOR)=1.25\n.ic V(VOUT_FILT)=1.25\n.ic V(OUT_PT100_BBOX)=1.25
TEXT 10176 -5592 Left 2 ;Trim_Ganancia100
TEXT 10680 -5488 Left 2 ;Trim_Filtro200
TEXT 7968 -5616 Left 2 ;Trim_offset o por sofware bbox
TEXT 7864 -4832 Left 2 ;OPA2188
LINE Normal 8336 -5120 7408 -5120 4
LINE Normal 8336 -4240 8336 -5120 4
LINE Normal 7408 -4240 8336 -4240 4
LINE Normal 7408 -5120 7408 -4240 4
LINE Normal 8336 -5792 8336 -5120 4
LINE Normal 7408 -5792 8336 -5792 4
LINE Normal 9296 -4240 8336 -4240 4
LINE Normal 9296 -5792 9296 -4240 4
LINE Normal 8336 -5792 9296 -5792 4
LINE Normal 10512 -5792 9296 -5792 4
LINE Normal 10512 -4240 10512 -5792 4
LINE Normal 9296 -4240 10512 -4240 4
LINE Normal 11680 -4240 10512 -4240 4
LINE Normal 11680 -5792 11680 -4240 4
LINE Normal 10512 -5792 11680 -5792 4
LINE Normal 8336 -4240 8336 -3712 4
LINE Normal 7408 -3712 7408 -4240 4
LINE Normal 8336 -3712 7408 -3712 4
LINE Normal 6832 -5792 7408 -5792 4
LINE Normal 6832 -5120 6832 -5792 4
LINE Normal 7408 -5120 6832 -5120 4
